18
Atoms
N 0.036357 1.483780 -1.718570
C 0.797645 1.250140 -2.557500
C 1.764800 0.951894 -3.623280
C 2.156740 -0.525437 -3.652590
H 1.321370 1.248380 -4.572390
H 2.642610 1.577920 -3.467620
H 1.280690 -1.155550 -3.809000
H 2.617120 -0.816313 -2.709190
H 2.876580 -0.731416 -4.445090
N 3.452450 1.189970 -0.733051
C 2.697540 1.420650 0.113054
C 1.737390 1.714520 1.188090
C 1.346010 3.193120 1.237330
H 0.856256 1.091840 1.033990
H 2.184960 1.408980 2.133390
H 0.878283 3.502790 0.303677
H 2.220630 3.824540 1.397420
H 0.634762 3.384660 2.041130
