30
Atoms
N 3.480080 0.503554 0.002764
C 0.047720 -3.048100 -0.488857
C 1.025910 -1.894580 -0.768041
C -0.674566 -3.532040 -1.751750
C 1.744750 -1.405980 0.494642
H -1.365310 -4.342690 -1.518810
C 2.714400 -0.337270 0.218261
H 0.591212 -3.884840 -0.046738
H -0.691641 -2.735800 0.249887
H 1.771540 -2.223920 -1.493170
H 0.496498 -1.059440 -1.226500
H 0.036198 -3.902520 -2.490080
H -1.249510 -2.729400 -2.215530
H 2.290700 -2.226940 0.959235
H 1.029620 -1.033480 1.230800
N 4.527790 -2.831410 -0.781230
C 8.389460 -0.106458 -2.280960
C 7.456060 -1.279060 -1.943280
C 9.685130 -0.559995 -2.963000
C 6.145160 -0.825633 -1.291010
H 10.316900 0.297087 -3.197660
C 5.240910 -1.948060 -1.006690
H 7.868130 0.593747 -2.933790
H 8.637180 0.447431 -1.374200
H 7.227940 -1.837110 -2.852150
H 7.965850 -1.974200 -1.274490
H 9.483300 -1.085050 -3.897650
H 10.258900 -1.228170 -2.321690
H 5.617680 -0.120938 -1.934850
H 6.342860 -0.316533 -0.346221
