44
Atoms
N 4.214940 -0.418919 -0.005353
C 2.218060 -3.374820 -1.367300
C 2.349520 -4.250730 -2.622410
C 3.227160 -2.215900 -1.345850
C 1.384110 -5.441840 -2.611460
C 3.161150 -1.417990 -0.038679
C 1.515870 -6.327680 -3.855510
H 2.365400 -3.992800 -0.483491
H 1.207210 -2.978630 -1.289630
H 2.173510 -3.649100 -3.518260
H 3.375750 -4.614940 -2.699920
H 3.041870 -1.561620 -2.194740
H 4.230470 -2.621230 -1.479930
H 0.358304 -5.079760 -2.537270
H 1.567870 -6.042330 -1.716210
H 2.187120 -0.924898 0.060485
H 3.264900 -2.077620 0.825521
H 0.834981 -7.174730 -3.801520
H 1.277780 -5.770450 -4.762920
H 2.527290 -6.729230 -3.955950
H 4.116620 0.221573 -0.780349
H 5.138040 -0.834806 -0.089023
N 6.462740 -2.129470 1.328170
C 5.747600 -5.359270 -0.569280
C 4.727770 -6.494620 -0.388500
C 5.690960 -4.320660 0.556147
C 4.738250 -7.487560 -1.557140
C 6.620720 -3.130430 0.289338
C 3.714780 -8.611770 -1.379460
H 5.568550 -4.858480 -1.521840
H 6.753720 -5.781360 -0.626140
H 4.942130 -7.019720 0.542539
H 3.726880 -6.073410 -0.285139
H 5.957310 -4.803960 1.496990
H 4.661100 -3.976600 0.660863
H 5.734350 -7.925690 -1.652450
H 4.538830 -6.965360 -2.492540
H 7.660140 -3.462330 0.261249
H 6.405470 -2.675230 -0.676379
H 3.749190 -9.299600 -2.226050
H 3.905830 -9.185690 -0.470302
H 2.702980 -8.212820 -1.317790
H 6.713060 -2.511970 2.228090
H 5.498460 -1.819240 1.409990
