16
Atoms
N 2.714500 0.894227 -0.001027
C 1.794200 0.193656 -0.020900
C 0.658665 -0.668969 -0.045362
C -0.569096 -0.224215 -0.027057
C -1.795350 0.224408 -0.008657
H 0.839249 -1.733180 -0.076078
H -2.379370 0.032815 0.879335
H -2.390070 0.076862 -0.897988
N 2.963060 6.813590 -0.091523
C 2.656270 5.698320 -0.063384
C 2.275570 4.324110 -0.028742
C 1.029450 3.933910 -0.031105
C -0.217737 3.548250 -0.033559
H 3.063710 3.586920 -0.006563
H -0.586504 3.067630 0.860476
H -0.573967 3.038530 -0.916502
