10
Atoms
C -0.255897 0.706750 -0.347778
H -0.563908 0.451733 0.666214
H 0.818696 0.555456 -0.450070
H -0.496612 1.750620 -0.548878
H -0.781877 0.069265 -1.058430
C 0.325064 9.202280 -16.379100
H -0.681142 9.476500 -16.062100
H 0.798195 8.598670 -15.604500
H 0.912347 10.105400 -16.545500
H 0.270807 8.628620 -17.304300
